# generated using pymatgen
data_BiAu2
_symmetry_space_group_name_H-M   'P 1'
_cell_length_a   7.94200000
_cell_length_b   7.94200000
_cell_length_c   7.94200000
_cell_angle_alpha   90.00000000
_cell_angle_beta   90.00000000
_cell_angle_gamma   90.00000000
_symmetry_Int_Tables_number   1
_chemical_formula_structural   BiAu2
_chemical_formula_sum   'Bi8 Au16'
_cell_volume   500.94454089
_cell_formula_units_Z   8
loop_
 _symmetry_equiv_pos_site_id
 _symmetry_equiv_pos_as_xyz
  1  'x, y, z'
loop_
 _atom_site_type_symbol
 _atom_site_label
 _atom_site_symmetry_multiplicity
 _atom_site_fract_x
 _atom_site_fract_y
 _atom_site_fract_z
 _atom_site_occupancy
  Bi  Bi0  1  0.37500000  0.37500000  0.37500000  1.0
  Bi  Bi1  1  0.87500000  0.87500000  0.37500000  1.0
  Bi  Bi2  1  0.87500000  0.37500000  0.87500000  1.0
  Bi  Bi3  1  0.62500000  0.62500000  0.62500000  1.0
  Bi  Bi4  1  0.62500000  0.12500000  0.12500000  1.0
  Bi  Bi5  1  0.37500000  0.87500000  0.87500000  1.0
  Bi  Bi6  1  0.12500000  0.62500000  0.12500000  1.0
  Bi  Bi7  1  0.12500000  0.12500000  0.62500000  1.0
  Au  Au8  1  0.00000000  0.00000000  0.00000000  1.0
  Au  Au9  1  0.25000000  0.25000000  0.00000000  1.0
  Au  Au10  1  0.25000000  0.00000000  0.25000000  1.0
  Au  Au11  1  0.00000000  0.75000000  0.75000000  1.0
  Au  Au12  1  0.00000000  0.25000000  0.25000000  1.0
  Au  Au13  1  0.75000000  0.75000000  0.00000000  1.0
  Au  Au14  1  0.75000000  0.00000000  0.75000000  1.0
  Au  Au15  1  0.00000000  0.50000000  0.50000000  1.0
  Au  Au16  1  0.25000000  0.75000000  0.50000000  1.0
  Au  Au17  1  0.25000000  0.50000000  0.75000000  1.0
  Au  Au18  1  0.75000000  0.25000000  0.50000000  1.0
  Au  Au19  1  0.75000000  0.50000000  0.25000000  1.0
  Au  Au20  1  0.50000000  0.00000000  0.50000000  1.0
  Au  Au21  1  0.50000000  0.75000000  0.25000000  1.0
  Au  Au22  1  0.50000000  0.25000000  0.75000000  1.0
  Au  Au23  1  0.50000000  0.50000000  0.00000000  1.0
