# generated using pymatgen
data_BaAl2
_symmetry_space_group_name_H-M   'P 1'
_cell_length_a   8.70200000
_cell_length_b   8.70200000
_cell_length_c   8.70200000
_cell_angle_alpha   90.00000000
_cell_angle_beta   90.00000000
_cell_angle_gamma   90.00000000
_symmetry_Int_Tables_number   1
_chemical_formula_structural   BaAl2
_chemical_formula_sum   'Ba8 Al16'
_cell_volume   658.95724441
_cell_formula_units_Z   8
loop_
 _symmetry_equiv_pos_site_id
 _symmetry_equiv_pos_as_xyz
  1  'x, y, z'
loop_
 _atom_site_type_symbol
 _atom_site_label
 _atom_site_symmetry_multiplicity
 _atom_site_fract_x
 _atom_site_fract_y
 _atom_site_fract_z
 _atom_site_occupancy
  Ba  Ba0  1  0.37500000  0.37500000  0.37500000  1.0
  Ba  Ba1  1  0.87500000  0.87500000  0.37500000  1.0
  Ba  Ba2  1  0.87500000  0.37500000  0.87500000  1.0
  Ba  Ba3  1  0.62500000  0.62500000  0.62500000  1.0
  Ba  Ba4  1  0.62500000  0.12500000  0.12500000  1.0
  Ba  Ba5  1  0.37500000  0.87500000  0.87500000  1.0
  Ba  Ba6  1  0.12500000  0.62500000  0.12500000  1.0
  Ba  Ba7  1  0.12500000  0.12500000  0.62500000  1.0
  Al  Al8  1  0.00000000  0.00000000  0.00000000  1.0
  Al  Al9  1  0.25000000  0.25000000  0.00000000  1.0
  Al  Al10  1  0.25000000  0.00000000  0.25000000  1.0
  Al  Al11  1  0.00000000  0.75000000  0.75000000  1.0
  Al  Al12  1  0.00000000  0.25000000  0.25000000  1.0
  Al  Al13  1  0.75000000  0.75000000  0.00000000  1.0
  Al  Al14  1  0.75000000  0.00000000  0.75000000  1.0
  Al  Al15  1  0.00000000  0.50000000  0.50000000  1.0
  Al  Al16  1  0.25000000  0.75000000  0.50000000  1.0
  Al  Al17  1  0.25000000  0.50000000  0.75000000  1.0
  Al  Al18  1  0.75000000  0.25000000  0.50000000  1.0
  Al  Al19  1  0.75000000  0.50000000  0.25000000  1.0
  Al  Al20  1  0.50000000  0.00000000  0.50000000  1.0
  Al  Al21  1  0.50000000  0.75000000  0.25000000  1.0
  Al  Al22  1  0.50000000  0.25000000  0.75000000  1.0
  Al  Al23  1  0.50000000  0.50000000  0.00000000  1.0
