# generated using pymatgen
data_Be2B
_symmetry_space_group_name_H-M   'P 1'
_cell_length_a   4.66300000
_cell_length_b   4.66300000
_cell_length_c   4.66300000
_cell_angle_alpha   90.00000000
_cell_angle_beta   90.00000000
_cell_angle_gamma   90.00000000
_symmetry_Int_Tables_number   1
_chemical_formula_structural   Be2B
_chemical_formula_sum   'Be8 B4'
_cell_volume   101.39026225
_cell_formula_units_Z   4
loop_
 _symmetry_equiv_pos_site_id
 _symmetry_equiv_pos_as_xyz
  1  'x, y, z'
loop_
 _atom_site_type_symbol
 _atom_site_label
 _atom_site_symmetry_multiplicity
 _atom_site_fract_x
 _atom_site_fract_y
 _atom_site_fract_z
 _atom_site_occupancy
  Be  Be0  1  0.25000000  0.25000000  0.25000000  1.0
  Be  Be1  1  0.75000000  0.75000000  0.75000000  1.0
  Be  Be2  1  0.75000000  0.75000000  0.25000000  1.0
  Be  Be3  1  0.75000000  0.25000000  0.75000000  1.0
  Be  Be4  1  0.75000000  0.25000000  0.25000000  1.0
  Be  Be5  1  0.25000000  0.75000000  0.75000000  1.0
  Be  Be6  1  0.25000000  0.75000000  0.25000000  1.0
  Be  Be7  1  0.25000000  0.25000000  0.75000000  1.0
  B  B8  1  0.00000000  0.00000000  0.00000000  1.0
  B  B9  1  0.00000000  0.50000000  0.50000000  1.0
  B  B10  1  0.50000000  0.00000000  0.50000000  1.0
  B  B11  1  0.50000000  0.50000000  0.00000000  1.0
