# generated using pymatgen
data_Be5Fe
_symmetry_space_group_name_H-M   'P 1'
_cell_length_a   5.87500000
_cell_length_b   5.87500000
_cell_length_c   5.87500000
_cell_angle_alpha   90.00000000
_cell_angle_beta   90.00000000
_cell_angle_gamma   90.00000000
_symmetry_Int_Tables_number   1
_chemical_formula_structural   Be5Fe
_chemical_formula_sum   'Be20 Fe4'
_cell_volume   202.77929688
_cell_formula_units_Z   4
loop_
 _symmetry_equiv_pos_site_id
 _symmetry_equiv_pos_as_xyz
  1  'x, y, z'
loop_
 _atom_site_type_symbol
 _atom_site_label
 _atom_site_symmetry_multiplicity
 _atom_site_fract_x
 _atom_site_fract_y
 _atom_site_fract_z
 _atom_site_occupancy
  Be  Be0  1  0.62500000  0.62500000  0.62500000  1.0
  Be  Be1  1  0.37500000  0.37500000  0.62500000  1.0
  Be  Be2  1  0.37500000  0.62500000  0.37500000  1.0
  Be  Be3  1  0.62500000  0.37500000  0.37500000  1.0
  Be  Be4  1  0.62500000  0.12500000  0.12500000  1.0
  Be  Be5  1  0.37500000  0.87500000  0.12500000  1.0
  Be  Be6  1  0.37500000  0.12500000  0.87500000  1.0
  Be  Be7  1  0.62500000  0.87500000  0.87500000  1.0
  Be  Be8  1  0.12500000  0.62500000  0.12500000  1.0
  Be  Be9  1  0.87500000  0.37500000  0.12500000  1.0
  Be  Be10  1  0.87500000  0.62500000  0.87500000  1.0
  Be  Be11  1  0.12500000  0.37500000  0.87500000  1.0
  Be  Be12  1  0.12500000  0.12500000  0.62500000  1.0
  Be  Be13  1  0.87500000  0.87500000  0.62500000  1.0
  Be  Be14  1  0.87500000  0.12500000  0.37500000  1.0
  Be  Be15  1  0.12500000  0.87500000  0.37500000  1.0
  Be  Be16  1  0.25000000  0.25000000  0.25000000  1.0
  Be  Be17  1  0.75000000  0.75000000  0.25000000  1.0
  Be  Be18  1  0.75000000  0.25000000  0.75000000  1.0
  Be  Be19  1  0.25000000  0.75000000  0.75000000  1.0
  Fe  Fe20  1  0.00000000  0.00000000  0.00000000  1.0
  Fe  Fe21  1  0.00000000  0.50000000  0.50000000  1.0
  Fe  Fe22  1  0.50000000  0.00000000  0.50000000  1.0
  Fe  Fe23  1  0.50000000  0.50000000  0.00000000  1.0
