# generated using pymatgen
data_Ca3In
_symmetry_space_group_name_H-M   'P 1'
_cell_length_a   7.86000000
_cell_length_b   7.86000000
_cell_length_c   7.86000000
_cell_angle_alpha   90.00000000
_cell_angle_beta   90.00000000
_cell_angle_gamma   90.00000000
_symmetry_Int_Tables_number   1
_chemical_formula_structural   Ca3In
_chemical_formula_sum   'Ca12 In4'
_cell_volume   485.58765600
_cell_formula_units_Z   4
loop_
 _symmetry_equiv_pos_site_id
 _symmetry_equiv_pos_as_xyz
  1  'x, y, z'
loop_
 _atom_site_type_symbol
 _atom_site_label
 _atom_site_symmetry_multiplicity
 _atom_site_fract_x
 _atom_site_fract_y
 _atom_site_fract_z
 _atom_site_occupancy
  Ca  Ca0  1  0.25000000  0.25000000  0.25000000  1.0
  Ca  Ca1  1  0.75000000  0.75000000  0.75000000  1.0
  Ca  Ca2  1  0.75000000  0.75000000  0.25000000  1.0
  Ca  Ca3  1  0.75000000  0.25000000  0.75000000  1.0
  Ca  Ca4  1  0.75000000  0.25000000  0.25000000  1.0
  Ca  Ca5  1  0.25000000  0.75000000  0.75000000  1.0
  Ca  Ca6  1  0.25000000  0.75000000  0.25000000  1.0
  Ca  Ca7  1  0.25000000  0.25000000  0.75000000  1.0
  Ca  Ca8  1  0.50000000  0.50000000  0.50000000  1.0
  Ca  Ca9  1  0.50000000  0.00000000  0.00000000  1.0
  Ca  Ca10  1  0.00000000  0.50000000  0.00000000  1.0
  Ca  Ca11  1  0.00000000  0.00000000  0.50000000  1.0
  In  In12  1  0.00000000  0.00000000  0.00000000  1.0
  In  In13  1  0.00000000  0.50000000  0.50000000  1.0
  In  In14  1  0.50000000  0.00000000  0.50000000  1.0
  In  In15  1  0.50000000  0.50000000  0.00000000  1.0
