# generated using pymatgen
data_CeCd3
_symmetry_space_group_name_H-M   'P 1'
_cell_length_a   7.21800000
_cell_length_b   7.21800000
_cell_length_c   7.21800000
_cell_angle_alpha   90.00000000
_cell_angle_beta   90.00000000
_cell_angle_gamma   90.00000000
_symmetry_Int_Tables_number   1
_chemical_formula_structural   CeCd3
_chemical_formula_sum   'Ce4 Cd12'
_cell_volume   376.05436423
_cell_formula_units_Z   4
loop_
 _symmetry_equiv_pos_site_id
 _symmetry_equiv_pos_as_xyz
  1  'x, y, z'
loop_
 _atom_site_type_symbol
 _atom_site_label
 _atom_site_symmetry_multiplicity
 _atom_site_fract_x
 _atom_site_fract_y
 _atom_site_fract_z
 _atom_site_occupancy
  Ce  Ce0  1  0.00000000  0.00000000  0.00000000  1.0
  Ce  Ce1  1  0.00000000  0.50000000  0.50000000  1.0
  Ce  Ce2  1  0.50000000  0.00000000  0.50000000  1.0
  Ce  Ce3  1  0.50000000  0.50000000  0.00000000  1.0
  Cd  Cd4  1  0.25000000  0.25000000  0.25000000  1.0
  Cd  Cd5  1  0.75000000  0.75000000  0.75000000  1.0
  Cd  Cd6  1  0.75000000  0.75000000  0.25000000  1.0
  Cd  Cd7  1  0.75000000  0.25000000  0.75000000  1.0
  Cd  Cd8  1  0.75000000  0.25000000  0.25000000  1.0
  Cd  Cd9  1  0.25000000  0.75000000  0.75000000  1.0
  Cd  Cd10  1  0.25000000  0.75000000  0.25000000  1.0
  Cd  Cd11  1  0.25000000  0.25000000  0.75000000  1.0
  Cd  Cd12  1  0.50000000  0.50000000  0.50000000  1.0
  Cd  Cd13  1  0.50000000  0.00000000  0.00000000  1.0
  Cd  Cd14  1  0.00000000  0.50000000  0.00000000  1.0
  Cd  Cd15  1  0.00000000  0.00000000  0.50000000  1.0
