# generated using pymatgen
data_CdPt3O4
_symmetry_space_group_name_H-M   'P 1'
_cell_length_a   5.68700000
_cell_length_b   5.68700000
_cell_length_c   5.68700000
_cell_angle_alpha   90.00000000
_cell_angle_beta   90.00000000
_cell_angle_gamma   90.00000000
_symmetry_Int_Tables_number   1
_chemical_formula_structural   CdPt3O4
_chemical_formula_sum   'Cd2 Pt6 O8'
_cell_volume   183.92877770
_cell_formula_units_Z   2
loop_
 _symmetry_equiv_pos_site_id
 _symmetry_equiv_pos_as_xyz
  1  'x, y, z'
loop_
 _atom_site_type_symbol
 _atom_site_label
 _atom_site_symmetry_multiplicity
 _atom_site_fract_x
 _atom_site_fract_y
 _atom_site_fract_z
 _atom_site_occupancy
  Cd  Cd0  1  0.00000000  0.00000000  0.00000000  1.0
  Cd  Cd1  1  0.50000000  0.50000000  0.50000000  1.0
  Pt  Pt2  1  0.25000000  0.00000000  0.50000000  1.0
  Pt  Pt3  1  0.75000000  0.00000000  0.50000000  1.0
  Pt  Pt4  1  0.50000000  0.25000000  0.00000000  1.0
  Pt  Pt5  1  0.50000000  0.75000000  0.00000000  1.0
  Pt  Pt6  1  0.00000000  0.50000000  0.75000000  1.0
  Pt  Pt7  1  0.00000000  0.50000000  0.25000000  1.0
  O  O8  1  0.25000000  0.25000000  0.25000000  1.0
  O  O9  1  0.25000000  0.25000000  0.75000000  1.0
  O  O10  1  0.25000000  0.75000000  0.25000000  1.0
  O  O11  1  0.25000000  0.75000000  0.75000000  1.0
  O  O12  1  0.75000000  0.75000000  0.75000000  1.0
  O  O13  1  0.75000000  0.75000000  0.25000000  1.0
  O  O14  1  0.75000000  0.25000000  0.75000000  1.0
  O  O15  1  0.75000000  0.25000000  0.25000000  1.0
