# generated using pymatgen
data_Ce2C3
_symmetry_space_group_name_H-M   'P 1'
_cell_length_a   8.44760000
_cell_length_b   8.44760000
_cell_length_c   8.44760000
_cell_angle_alpha   90.00000000
_cell_angle_beta   90.00000000
_cell_angle_gamma   90.00000000
_symmetry_Int_Tables_number   1
_chemical_formula_structural   Ce2C3
_chemical_formula_sum   'Ce16 C24'
_cell_volume   602.83717300
_cell_formula_units_Z   8
loop_
 _symmetry_equiv_pos_site_id
 _symmetry_equiv_pos_as_xyz
  1  'x, y, z'
loop_
 _atom_site_type_symbol
 _atom_site_label
 _atom_site_symmetry_multiplicity
 _atom_site_fract_x
 _atom_site_fract_y
 _atom_site_fract_z
 _atom_site_occupancy
  Ce  Ce0  1  0.05050000  0.05050000  0.05050000  1.0
  Ce  Ce1  1  0.44950000  0.05050000  0.94950000  1.0
  Ce  Ce2  1  0.19950000  0.30050000  0.69950000  1.0
  Ce  Ce3  1  0.94950000  0.44950000  0.05050000  1.0
  Ce  Ce4  1  0.69950000  0.19950000  0.30050000  1.0
  Ce  Ce5  1  0.30050000  0.69950000  0.19950000  1.0
  Ce  Ce6  1  0.30050000  0.30050000  0.30050000  1.0
  Ce  Ce7  1  0.05050000  0.94950000  0.44950000  1.0
  Ce  Ce8  1  0.55050000  0.55050000  0.55050000  1.0
  Ce  Ce9  1  0.94950000  0.55050000  0.44950000  1.0
  Ce  Ce10  1  0.69950000  0.80050000  0.19950000  1.0
  Ce  Ce11  1  0.44950000  0.94950000  0.55050000  1.0
  Ce  Ce12  1  0.19950000  0.69950000  0.80050000  1.0
  Ce  Ce13  1  0.80050000  0.19950000  0.69950000  1.0
  Ce  Ce14  1  0.80050000  0.80050000  0.80050000  1.0
  Ce  Ce15  1  0.55050000  0.44950000  0.94950000  1.0
  C  C16  1  0.29950000  0.00000000  0.25000000  1.0
  C  C17  1  0.20050000  0.00000000  0.75000000  1.0
  C  C18  1  0.95050000  0.50000000  0.75000000  1.0
  C  C19  1  0.70050000  0.50000000  0.25000000  1.0
  C  C20  1  0.45050000  0.00000000  0.25000000  1.0
  C  C21  1  0.50000000  0.25000000  0.70050000  1.0
  C  C22  1  0.25000000  0.54950000  0.50000000  1.0
  C  C23  1  0.00000000  0.25000000  0.29950000  1.0
  C  C24  1  0.75000000  0.95050000  0.50000000  1.0
  C  C25  1  0.25000000  0.29950000  0.00000000  1.0
  C  C26  1  0.00000000  0.25000000  0.45050000  1.0
  C  C27  1  0.75000000  0.20050000  0.00000000  1.0
  C  C28  1  0.50000000  0.25000000  0.54950000  1.0
  C  C29  1  0.54950000  0.50000000  0.25000000  1.0
  C  C30  1  0.25000000  0.45050000  0.00000000  1.0
  C  C31  1  0.00000000  0.75000000  0.20050000  1.0
  C  C32  1  0.50000000  0.75000000  0.95050000  1.0
  C  C33  1  0.25000000  0.70050000  0.50000000  1.0
  C  C34  1  0.79950000  0.50000000  0.75000000  1.0
  C  C35  1  0.75000000  0.04950000  0.00000000  1.0
  C  C36  1  0.50000000  0.75000000  0.79950000  1.0
  C  C37  1  0.75000000  0.79950000  0.50000000  1.0
  C  C38  1  0.00000000  0.75000000  0.04950000  1.0
  C  C39  1  0.04950000  0.00000000  0.75000000  1.0
