# generated using pymatgen
data_CeIr2
_symmetry_space_group_name_H-M   'P 1'
_cell_length_a   7.57800000
_cell_length_b   7.57800000
_cell_length_c   7.57800000
_cell_angle_alpha   90.00000000
_cell_angle_beta   90.00000000
_cell_angle_gamma   90.00000000
_symmetry_Int_Tables_number   1
_chemical_formula_structural   CeIr2
_chemical_formula_sum   'Ce8 Ir16'
_cell_volume   435.17486455
_cell_formula_units_Z   8
loop_
 _symmetry_equiv_pos_site_id
 _symmetry_equiv_pos_as_xyz
  1  'x, y, z'
loop_
 _atom_site_type_symbol
 _atom_site_label
 _atom_site_symmetry_multiplicity
 _atom_site_fract_x
 _atom_site_fract_y
 _atom_site_fract_z
 _atom_site_occupancy
  Ce  Ce0  1  0.37500000  0.37500000  0.37500000  1.0
  Ce  Ce1  1  0.87500000  0.87500000  0.37500000  1.0
  Ce  Ce2  1  0.87500000  0.37500000  0.87500000  1.0
  Ce  Ce3  1  0.62500000  0.62500000  0.62500000  1.0
  Ce  Ce4  1  0.62500000  0.12500000  0.12500000  1.0
  Ce  Ce5  1  0.37500000  0.87500000  0.87500000  1.0
  Ce  Ce6  1  0.12500000  0.62500000  0.12500000  1.0
  Ce  Ce7  1  0.12500000  0.12500000  0.62500000  1.0
  Ir  Ir8  1  0.00000000  0.00000000  0.00000000  1.0
  Ir  Ir9  1  0.25000000  0.25000000  0.00000000  1.0
  Ir  Ir10  1  0.25000000  0.00000000  0.25000000  1.0
  Ir  Ir11  1  0.00000000  0.75000000  0.75000000  1.0
  Ir  Ir12  1  0.00000000  0.25000000  0.25000000  1.0
  Ir  Ir13  1  0.75000000  0.75000000  0.00000000  1.0
  Ir  Ir14  1  0.75000000  0.00000000  0.75000000  1.0
  Ir  Ir15  1  0.00000000  0.50000000  0.50000000  1.0
  Ir  Ir16  1  0.25000000  0.75000000  0.50000000  1.0
  Ir  Ir17  1  0.25000000  0.50000000  0.75000000  1.0
  Ir  Ir18  1  0.75000000  0.25000000  0.50000000  1.0
  Ir  Ir19  1  0.75000000  0.50000000  0.25000000  1.0
  Ir  Ir20  1  0.50000000  0.00000000  0.50000000  1.0
  Ir  Ir21  1  0.50000000  0.75000000  0.25000000  1.0
  Ir  Ir22  1  0.50000000  0.25000000  0.75000000  1.0
  Ir  Ir23  1  0.50000000  0.50000000  0.00000000  1.0
