# generated using pymatgen
data_CoSi2
_symmetry_space_group_name_H-M   'P 1'
_cell_length_a   5.36500000
_cell_length_b   5.36500000
_cell_length_c   5.36500000
_cell_angle_alpha   90.00000000
_cell_angle_beta   90.00000000
_cell_angle_gamma   90.00000000
_symmetry_Int_Tables_number   1
_chemical_formula_structural   CoSi2
_chemical_formula_sum   'Co4 Si8'
_cell_volume   154.42200213
_cell_formula_units_Z   4
loop_
 _symmetry_equiv_pos_site_id
 _symmetry_equiv_pos_as_xyz
  1  'x, y, z'
loop_
 _atom_site_type_symbol
 _atom_site_label
 _atom_site_symmetry_multiplicity
 _atom_site_fract_x
 _atom_site_fract_y
 _atom_site_fract_z
 _atom_site_occupancy
  Co  Co0  1  0.00000000  0.00000000  0.00000000  1.0
  Co  Co1  1  0.00000000  0.50000000  0.50000000  1.0
  Co  Co2  1  0.50000000  0.00000000  0.50000000  1.0
  Co  Co3  1  0.50000000  0.50000000  0.00000000  1.0
  Si  Si4  1  0.25000000  0.25000000  0.25000000  1.0
  Si  Si5  1  0.75000000  0.75000000  0.75000000  1.0
  Si  Si6  1  0.75000000  0.75000000  0.25000000  1.0
  Si  Si7  1  0.75000000  0.25000000  0.75000000  1.0
  Si  Si8  1  0.75000000  0.25000000  0.25000000  1.0
  Si  Si9  1  0.25000000  0.75000000  0.75000000  1.0
  Si  Si10  1  0.25000000  0.75000000  0.25000000  1.0
  Si  Si11  1  0.25000000  0.25000000  0.75000000  1.0
