# generated using pymatgen
data_Cs3Bi
_symmetry_space_group_name_H-M   'P 1'
_cell_length_a   9.31000000
_cell_length_b   9.31000000
_cell_length_c   9.31000000
_cell_angle_alpha   90.00000000
_cell_angle_beta   90.00000000
_cell_angle_gamma   90.00000000
_symmetry_Int_Tables_number   1
_chemical_formula_structural   Cs3Bi
_chemical_formula_sum   'Cs12 Bi4'
_cell_volume   806.95449100
_cell_formula_units_Z   4
loop_
 _symmetry_equiv_pos_site_id
 _symmetry_equiv_pos_as_xyz
  1  'x, y, z'
loop_
 _atom_site_type_symbol
 _atom_site_label
 _atom_site_symmetry_multiplicity
 _atom_site_fract_x
 _atom_site_fract_y
 _atom_site_fract_z
 _atom_site_occupancy
  Cs  Cs0  1  0.25000000  0.25000000  0.25000000  1.0
  Cs  Cs1  1  0.75000000  0.75000000  0.75000000  1.0
  Cs  Cs2  1  0.75000000  0.75000000  0.25000000  1.0
  Cs  Cs3  1  0.75000000  0.25000000  0.75000000  1.0
  Cs  Cs4  1  0.75000000  0.25000000  0.25000000  1.0
  Cs  Cs5  1  0.25000000  0.75000000  0.75000000  1.0
  Cs  Cs6  1  0.25000000  0.75000000  0.25000000  1.0
  Cs  Cs7  1  0.25000000  0.25000000  0.75000000  1.0
  Cs  Cs8  1  0.50000000  0.50000000  0.50000000  1.0
  Cs  Cs9  1  0.50000000  0.00000000  0.00000000  1.0
  Cs  Cs10  1  0.00000000  0.50000000  0.00000000  1.0
  Cs  Cs11  1  0.00000000  0.00000000  0.50000000  1.0
  Bi  Bi12  1  0.00000000  0.00000000  0.00000000  1.0
  Bi  Bi13  1  0.00000000  0.50000000  0.50000000  1.0
  Bi  Bi14  1  0.50000000  0.00000000  0.50000000  1.0
  Bi  Bi15  1  0.50000000  0.50000000  0.00000000  1.0
