# generated using pymatgen
data_MnCu2Sn
_symmetry_space_group_name_H-M   'P 1'
_cell_length_a   6.17300000
_cell_length_b   6.17300000
_cell_length_c   6.17300000
_cell_angle_alpha   90.00000000
_cell_angle_beta   90.00000000
_cell_angle_gamma   90.00000000
_symmetry_Int_Tables_number   1
_chemical_formula_structural   MnCu2Sn
_chemical_formula_sum   'Mn4 Cu8 Sn4'
_cell_volume   235.22789972
_cell_formula_units_Z   4
loop_
 _symmetry_equiv_pos_site_id
 _symmetry_equiv_pos_as_xyz
  1  'x, y, z'
loop_
 _atom_site_type_symbol
 _atom_site_label
 _atom_site_symmetry_multiplicity
 _atom_site_fract_x
 _atom_site_fract_y
 _atom_site_fract_z
 _atom_site_occupancy
  Mn  Mn0  1  0.50000000  0.50000000  0.50000000  1.0
  Mn  Mn1  1  0.50000000  0.00000000  0.00000000  1.0
  Mn  Mn2  1  0.00000000  0.50000000  0.00000000  1.0
  Mn  Mn3  1  0.00000000  0.00000000  0.50000000  1.0
  Cu  Cu4  1  0.25000000  0.25000000  0.25000000  1.0
  Cu  Cu5  1  0.75000000  0.75000000  0.75000000  1.0
  Cu  Cu6  1  0.75000000  0.75000000  0.25000000  1.0
  Cu  Cu7  1  0.75000000  0.25000000  0.75000000  1.0
  Cu  Cu8  1  0.75000000  0.25000000  0.25000000  1.0
  Cu  Cu9  1  0.25000000  0.75000000  0.75000000  1.0
  Cu  Cu10  1  0.25000000  0.75000000  0.25000000  1.0
  Cu  Cu11  1  0.25000000  0.25000000  0.75000000  1.0
  Sn  Sn12  1  0.00000000  0.00000000  0.00000000  1.0
  Sn  Sn13  1  0.00000000  0.50000000  0.50000000  1.0
  Sn  Sn14  1  0.50000000  0.00000000  0.50000000  1.0
  Sn  Sn15  1  0.50000000  0.50000000  0.00000000  1.0
