# generated using pymatgen
data_Al4Cu9
_symmetry_space_group_name_H-M   'P 1'
_cell_length_a   8.70000000
_cell_length_b   8.70000000
_cell_length_c   8.70000000
_cell_angle_alpha   90.00000000
_cell_angle_beta   90.00000000
_cell_angle_gamma   90.00000000
_symmetry_Int_Tables_number   1
_chemical_formula_structural   Al4Cu9
_chemical_formula_sum   'Al16 Cu36'
_cell_volume   658.50300000
_cell_formula_units_Z   4
loop_
 _symmetry_equiv_pos_site_id
 _symmetry_equiv_pos_as_xyz
  1  'x, y, z'
loop_
 _atom_site_type_symbol
 _atom_site_label
 _atom_site_symmetry_multiplicity
 _atom_site_fract_x
 _atom_site_fract_y
 _atom_site_fract_z
 _atom_site_occupancy
  Al  Al0  1  0.31130000  0.31130000  0.03320000  1.0
  Al  Al1  1  0.68870000  0.68870000  0.03320000  1.0
  Al  Al2  1  0.68870000  0.96680000  0.31130000  1.0
  Al  Al3  1  0.68870000  0.31130000  0.96680000  1.0
  Al  Al4  1  0.68870000  0.03320000  0.68870000  1.0
  Al  Al5  1  0.96680000  0.68870000  0.31130000  1.0
  Al  Al6  1  0.96680000  0.31130000  0.68870000  1.0
  Al  Al7  1  0.31130000  0.68870000  0.96680000  1.0
  Al  Al8  1  0.31130000  0.96680000  0.68870000  1.0
  Al  Al9  1  0.31130000  0.03320000  0.31130000  1.0
  Al  Al10  1  0.03320000  0.68870000  0.68870000  1.0
  Al  Al11  1  0.03320000  0.31130000  0.31130000  1.0
  Al  Al12  1  0.61570000  0.61570000  0.61570000  1.0
  Al  Al13  1  0.38430000  0.38430000  0.61570000  1.0
  Al  Al14  1  0.38430000  0.61570000  0.38430000  1.0
  Al  Al15  1  0.61570000  0.38430000  0.38430000  1.0
  Cu  Cu16  1  0.18470000  0.18470000  0.53220000  1.0
  Cu  Cu17  1  0.81530000  0.81530000  0.53220000  1.0
  Cu  Cu18  1  0.81530000  0.46780000  0.18470000  1.0
  Cu  Cu19  1  0.81530000  0.18470000  0.46780000  1.0
  Cu  Cu20  1  0.81530000  0.53220000  0.81530000  1.0
  Cu  Cu21  1  0.46780000  0.81530000  0.18470000  1.0
  Cu  Cu22  1  0.46780000  0.18470000  0.81530000  1.0
  Cu  Cu23  1  0.18470000  0.81530000  0.46780000  1.0
  Cu  Cu24  1  0.18470000  0.46780000  0.81530000  1.0
  Cu  Cu25  1  0.18470000  0.53220000  0.18470000  1.0
  Cu  Cu26  1  0.53220000  0.81530000  0.81530000  1.0
  Cu  Cu27  1  0.53220000  0.18470000  0.18470000  1.0
  Cu  Cu28  1  0.14470000  0.50000000  0.50000000  1.0
  Cu  Cu29  1  0.85530000  0.50000000  0.50000000  1.0
  Cu  Cu30  1  0.50000000  0.85530000  0.50000000  1.0
  Cu  Cu31  1  0.50000000  0.50000000  0.14470000  1.0
  Cu  Cu32  1  0.50000000  0.14470000  0.50000000  1.0
  Cu  Cu33  1  0.50000000  0.50000000  0.85530000  1.0
  Cu  Cu34  1  0.35490000  0.00000000  0.00000000  1.0
  Cu  Cu35  1  0.64510000  0.00000000  0.00000000  1.0
  Cu  Cu36  1  0.00000000  0.64510000  0.00000000  1.0
  Cu  Cu37  1  0.00000000  0.00000000  0.35490000  1.0
  Cu  Cu38  1  0.00000000  0.35490000  0.00000000  1.0
  Cu  Cu39  1  0.00000000  0.00000000  0.64510000  1.0
  Cu  Cu40  1  0.10660000  0.10660000  0.10660000  1.0
  Cu  Cu41  1  0.89340000  0.89340000  0.10660000  1.0
  Cu  Cu42  1  0.89340000  0.10660000  0.89340000  1.0
  Cu  Cu43  1  0.10660000  0.89340000  0.89340000  1.0
  Cu  Cu44  1  0.32960000  0.32960000  0.32960000  1.0
  Cu  Cu45  1  0.67040000  0.67040000  0.32960000  1.0
  Cu  Cu46  1  0.67040000  0.32960000  0.67040000  1.0
  Cu  Cu47  1  0.32960000  0.67040000  0.67040000  1.0
  Cu  Cu48  1  0.82530000  0.82530000  0.82530000  1.0
  Cu  Cu49  1  0.17470000  0.17470000  0.82530000  1.0
  Cu  Cu50  1  0.17470000  0.82530000  0.17470000  1.0
  Cu  Cu51  1  0.82530000  0.17470000  0.17470000  1.0
