# generated using pymatgen
data_HfCuHg2
_symmetry_space_group_name_H-M   'P 1'
_cell_length_a   6.97000000
_cell_length_b   6.97000000
_cell_length_c   6.97000000
_cell_angle_alpha   90.00000000
_cell_angle_beta   90.00000000
_cell_angle_gamma   90.00000000
_symmetry_Int_Tables_number   1
_chemical_formula_structural   HfCuHg2
_chemical_formula_sum   'Hf4 Cu4 Hg8'
_cell_volume   338.60887300
_cell_formula_units_Z   4
loop_
 _symmetry_equiv_pos_site_id
 _symmetry_equiv_pos_as_xyz
  1  'x, y, z'
loop_
 _atom_site_type_symbol
 _atom_site_label
 _atom_site_symmetry_multiplicity
 _atom_site_fract_x
 _atom_site_fract_y
 _atom_site_fract_z
 _atom_site_occupancy
  Hf  Hf0  1  0.25000000  0.25000000  0.25000000  1.0
  Hf  Hf1  1  0.75000000  0.75000000  0.25000000  1.0
  Hf  Hf2  1  0.75000000  0.25000000  0.75000000  1.0
  Hf  Hf3  1  0.25000000  0.75000000  0.75000000  1.0
  Cu  Cu4  1  0.50000000  0.50000000  0.50000000  1.0
  Cu  Cu5  1  0.50000000  0.00000000  0.00000000  1.0
  Cu  Cu6  1  0.00000000  0.50000000  0.00000000  1.0
  Cu  Cu7  1  0.00000000  0.00000000  0.50000000  1.0
  Hg  Hg8  1  0.75000000  0.75000000  0.75000000  1.0
  Hg  Hg9  1  0.25000000  0.25000000  0.75000000  1.0
  Hg  Hg10  1  0.25000000  0.75000000  0.25000000  1.0
  Hg  Hg11  1  0.75000000  0.25000000  0.25000000  1.0
  Hg  Hg12  1  0.00000000  0.00000000  0.00000000  1.0
  Hg  Hg13  1  0.00000000  0.50000000  0.50000000  1.0
  Hg  Hg14  1  0.50000000  0.00000000  0.50000000  1.0
  Hg  Hg15  1  0.50000000  0.50000000  0.00000000  1.0
