# generated using pymatgen
data_DyN
_symmetry_space_group_name_H-M   'P 1'
_cell_length_a   4.90100000
_cell_length_b   4.90100000
_cell_length_c   4.90100000
_cell_angle_alpha   90.00000000
_cell_angle_beta   90.00000000
_cell_angle_gamma   90.00000000
_symmetry_Int_Tables_number   1
_chemical_formula_structural   DyN
_chemical_formula_sum   'Dy4 N4'
_cell_volume   117.72104470
_cell_formula_units_Z   4
loop_
 _symmetry_equiv_pos_site_id
 _symmetry_equiv_pos_as_xyz
  1  'x, y, z'
loop_
 _atom_site_type_symbol
 _atom_site_label
 _atom_site_symmetry_multiplicity
 _atom_site_fract_x
 _atom_site_fract_y
 _atom_site_fract_z
 _atom_site_occupancy
  Dy  Dy0  1  0.00000000  0.00000000  0.00000000  1.0
  Dy  Dy1  1  0.00000000  0.50000000  0.50000000  1.0
  Dy  Dy2  1  0.50000000  0.00000000  0.50000000  1.0
  Dy  Dy3  1  0.50000000  0.50000000  0.00000000  1.0
  N  N4  1  0.50000000  0.50000000  0.50000000  1.0
  N  N5  1  0.50000000  0.00000000  0.00000000  1.0
  N  N6  1  0.00000000  0.50000000  0.00000000  1.0
  N  N7  1  0.00000000  0.00000000  0.50000000  1.0
