# generated using pymatgen
data_DyNiSb
_symmetry_space_group_name_H-M   'P 1'
_cell_length_a   6.29800000
_cell_length_b   6.29800000
_cell_length_c   6.29800000
_cell_angle_alpha   90.00000000
_cell_angle_beta   90.00000000
_cell_angle_gamma   90.00000000
_symmetry_Int_Tables_number   1
_chemical_formula_structural   DyNiSb
_chemical_formula_sum   'Dy4 Ni4 Sb4'
_cell_volume   249.80893559
_cell_formula_units_Z   4
loop_
 _symmetry_equiv_pos_site_id
 _symmetry_equiv_pos_as_xyz
  1  'x, y, z'
loop_
 _atom_site_type_symbol
 _atom_site_label
 _atom_site_symmetry_multiplicity
 _atom_site_fract_x
 _atom_site_fract_y
 _atom_site_fract_z
 _atom_site_occupancy
  Dy  Dy0  1  0.00000000  0.00000000  0.00000000  1.0
  Dy  Dy1  1  0.00000000  0.50000000  0.50000000  1.0
  Dy  Dy2  1  0.50000000  0.00000000  0.50000000  1.0
  Dy  Dy3  1  0.50000000  0.50000000  0.00000000  1.0
  Ni  Ni4  1  0.25000000  0.25000000  0.25000000  1.0
  Ni  Ni5  1  0.75000000  0.75000000  0.25000000  1.0
  Ni  Ni6  1  0.75000000  0.25000000  0.75000000  1.0
  Ni  Ni7  1  0.25000000  0.75000000  0.75000000  1.0
  Sb  Sb8  1  0.50000000  0.50000000  0.50000000  1.0
  Sb  Sb9  1  0.50000000  0.00000000  0.00000000  1.0
  Sb  Sb10  1  0.00000000  0.50000000  0.00000000  1.0
  Sb  Sb11  1  0.00000000  0.00000000  0.50000000  1.0
