# generated using pymatgen
data_ErN
_symmetry_space_group_name_H-M   'P 1'
_cell_length_a   4.83000000
_cell_length_b   4.83000000
_cell_length_c   4.83000000
_cell_angle_alpha   90.00000000
_cell_angle_beta   90.00000000
_cell_angle_gamma   90.00000000
_symmetry_Int_Tables_number   1
_chemical_formula_structural   ErN
_chemical_formula_sum   'Er4 N4'
_cell_volume   112.67858700
_cell_formula_units_Z   4
loop_
 _symmetry_equiv_pos_site_id
 _symmetry_equiv_pos_as_xyz
  1  'x, y, z'
loop_
 _atom_site_type_symbol
 _atom_site_label
 _atom_site_symmetry_multiplicity
 _atom_site_fract_x
 _atom_site_fract_y
 _atom_site_fract_z
 _atom_site_occupancy
  Er  Er0  1  0.00000000  0.00000000  0.00000000  1.0
  Er  Er1  1  0.00000000  0.50000000  0.50000000  1.0
  Er  Er2  1  0.50000000  0.00000000  0.50000000  1.0
  Er  Er3  1  0.50000000  0.50000000  0.00000000  1.0
  N  N4  1  0.50000000  0.50000000  0.50000000  1.0
  N  N5  1  0.50000000  0.00000000  0.00000000  1.0
  N  N6  1  0.00000000  0.50000000  0.00000000  1.0
  N  N7  1  0.00000000  0.00000000  0.50000000  1.0
