# generated using pymatgen
data_EuRh2
_symmetry_space_group_name_H-M   'P 1'
_cell_length_a   7.52200000
_cell_length_b   7.52200000
_cell_length_c   7.52200000
_cell_angle_alpha   90.00000000
_cell_angle_beta   90.00000000
_cell_angle_gamma   90.00000000
_symmetry_Int_Tables_number   1
_chemical_formula_structural   EuRh2
_chemical_formula_sum   'Eu8 Rh16'
_cell_volume   425.59840065
_cell_formula_units_Z   8
loop_
 _symmetry_equiv_pos_site_id
 _symmetry_equiv_pos_as_xyz
  1  'x, y, z'
loop_
 _atom_site_type_symbol
 _atom_site_label
 _atom_site_symmetry_multiplicity
 _atom_site_fract_x
 _atom_site_fract_y
 _atom_site_fract_z
 _atom_site_occupancy
  Eu  Eu0  1  0.37500000  0.37500000  0.37500000  1.0
  Eu  Eu1  1  0.87500000  0.87500000  0.37500000  1.0
  Eu  Eu2  1  0.87500000  0.37500000  0.87500000  1.0
  Eu  Eu3  1  0.62500000  0.62500000  0.62500000  1.0
  Eu  Eu4  1  0.62500000  0.12500000  0.12500000  1.0
  Eu  Eu5  1  0.37500000  0.87500000  0.87500000  1.0
  Eu  Eu6  1  0.12500000  0.62500000  0.12500000  1.0
  Eu  Eu7  1  0.12500000  0.12500000  0.62500000  1.0
  Rh  Rh8  1  0.00000000  0.00000000  0.00000000  1.0
  Rh  Rh9  1  0.25000000  0.25000000  0.00000000  1.0
  Rh  Rh10  1  0.25000000  0.00000000  0.25000000  1.0
  Rh  Rh11  1  0.00000000  0.75000000  0.75000000  1.0
  Rh  Rh12  1  0.00000000  0.25000000  0.25000000  1.0
  Rh  Rh13  1  0.75000000  0.75000000  0.00000000  1.0
  Rh  Rh14  1  0.75000000  0.00000000  0.75000000  1.0
  Rh  Rh15  1  0.00000000  0.50000000  0.50000000  1.0
  Rh  Rh16  1  0.25000000  0.75000000  0.50000000  1.0
  Rh  Rh17  1  0.25000000  0.50000000  0.75000000  1.0
  Rh  Rh18  1  0.75000000  0.25000000  0.50000000  1.0
  Rh  Rh19  1  0.75000000  0.50000000  0.25000000  1.0
  Rh  Rh20  1  0.50000000  0.00000000  0.50000000  1.0
  Rh  Rh21  1  0.50000000  0.75000000  0.25000000  1.0
  Rh  Rh22  1  0.50000000  0.25000000  0.75000000  1.0
  Rh  Rh23  1  0.50000000  0.50000000  0.00000000  1.0
