# generated using pymatgen
data_AlFe3
_symmetry_space_group_name_H-M   'P 1'
_cell_length_a   5.79340000
_cell_length_b   5.79340000
_cell_length_c   5.79340000
_cell_angle_alpha   90.00000000
_cell_angle_beta   90.00000000
_cell_angle_gamma   90.00000000
_symmetry_Int_Tables_number   1
_chemical_formula_structural   AlFe3
_chemical_formula_sum   'Al4 Fe12'
_cell_volume   194.44668566
_cell_formula_units_Z   4
loop_
 _symmetry_equiv_pos_site_id
 _symmetry_equiv_pos_as_xyz
  1  'x, y, z'
loop_
 _atom_site_type_symbol
 _atom_site_label
 _atom_site_symmetry_multiplicity
 _atom_site_fract_x
 _atom_site_fract_y
 _atom_site_fract_z
 _atom_site_occupancy
  Al  Al0  1  0.00000000  0.00000000  0.00000000  1.0
  Al  Al1  1  0.00000000  0.50000000  0.50000000  1.0
  Al  Al2  1  0.50000000  0.00000000  0.50000000  1.0
  Al  Al3  1  0.50000000  0.50000000  0.00000000  1.0
  Fe  Fe4  1  0.25000000  0.25000000  0.25000000  1.0
  Fe  Fe5  1  0.75000000  0.75000000  0.75000000  1.0
  Fe  Fe6  1  0.75000000  0.75000000  0.25000000  1.0
  Fe  Fe7  1  0.75000000  0.25000000  0.75000000  1.0
  Fe  Fe8  1  0.75000000  0.25000000  0.25000000  1.0
  Fe  Fe9  1  0.25000000  0.75000000  0.75000000  1.0
  Fe  Fe10  1  0.25000000  0.75000000  0.25000000  1.0
  Fe  Fe11  1  0.25000000  0.25000000  0.75000000  1.0
  Fe  Fe12  1  0.50000000  0.50000000  0.50000000  1.0
  Fe  Fe13  1  0.50000000  0.00000000  0.00000000  1.0
  Fe  Fe14  1  0.00000000  0.50000000  0.00000000  1.0
  Fe  Fe15  1  0.00000000  0.00000000  0.50000000  1.0
