# generated using pymatgen
data_FeS2
_symmetry_space_group_name_H-M   'P 1'
_cell_length_a   5.40400000
_cell_length_b   5.40400000
_cell_length_c   5.40400000
_cell_angle_alpha   90.00000000
_cell_angle_beta   90.00000000
_cell_angle_gamma   90.00000000
_symmetry_Int_Tables_number   1
_chemical_formula_structural   FeS2
_chemical_formula_sum   'Fe4 S8'
_cell_volume   157.81417926
_cell_formula_units_Z   4
loop_
 _symmetry_equiv_pos_site_id
 _symmetry_equiv_pos_as_xyz
  1  'x, y, z'
loop_
 _atom_site_type_symbol
 _atom_site_label
 _atom_site_symmetry_multiplicity
 _atom_site_fract_x
 _atom_site_fract_y
 _atom_site_fract_z
 _atom_site_occupancy
  Fe  Fe0  1  0.00000000  0.00000000  0.00000000  1.0
  Fe  Fe1  1  0.50000000  0.00000000  0.50000000  1.0
  Fe  Fe2  1  0.50000000  0.50000000  0.00000000  1.0
  Fe  Fe3  1  0.00000000  0.50000000  0.50000000  1.0
  S  S4  1  0.38400000  0.38400000  0.38400000  1.0
  S  S5  1  0.11600000  0.61600000  0.88400000  1.0
  S  S6  1  0.11600000  0.88400000  0.38400000  1.0
  S  S7  1  0.61600000  0.61600000  0.61600000  1.0
  S  S8  1  0.61600000  0.88400000  0.11600000  1.0
  S  S9  1  0.88400000  0.11600000  0.61600000  1.0
  S  S10  1  0.88400000  0.38400000  0.11600000  1.0
  S  S11  1  0.38400000  0.11600000  0.88400000  1.0
