# generated using pymatgen
data_FeSi
_symmetry_space_group_name_H-M   'P 1'
_cell_length_a   4.46090000
_cell_length_b   4.46090000
_cell_length_c   4.46090000
_cell_angle_alpha   90.00000000
_cell_angle_beta   90.00000000
_cell_angle_gamma   90.00000000
_symmetry_Int_Tables_number   1
_chemical_formula_structural   FeSi
_chemical_formula_sum   'Fe4 Si4'
_cell_volume   88.77025416
_cell_formula_units_Z   4
loop_
 _symmetry_equiv_pos_site_id
 _symmetry_equiv_pos_as_xyz
  1  'x, y, z'
loop_
 _atom_site_type_symbol
 _atom_site_label
 _atom_site_symmetry_multiplicity
 _atom_site_fract_x
 _atom_site_fract_y
 _atom_site_fract_z
 _atom_site_occupancy
  Fe  Fe0  1  0.38660000  0.38660000  0.38660000  1.0
  Fe  Fe1  1  0.11340000  0.61340000  0.88660000  1.0
  Fe  Fe2  1  0.61340000  0.88660000  0.11340000  1.0
  Fe  Fe3  1  0.88660000  0.11340000  0.61340000  1.0
  Si  Si4  1  0.09290000  0.09290000  0.09290000  1.0
  Si  Si5  1  0.40710000  0.90710000  0.59290000  1.0
  Si  Si6  1  0.90710000  0.59290000  0.40710000  1.0
  Si  Si7  1  0.59290000  0.40710000  0.90710000  1.0
