# generated using pymatgen
data_GdPt2
_symmetry_space_group_name_H-M   'P 1'
_cell_length_a   7.63400000
_cell_length_b   7.63400000
_cell_length_c   7.63400000
_cell_angle_alpha   90.00000000
_cell_angle_beta   90.00000000
_cell_angle_gamma   90.00000000
_symmetry_Int_Tables_number   1
_chemical_formula_structural   GdPt2
_chemical_formula_sum   'Gd8 Pt16'
_cell_volume   444.89391610
_cell_formula_units_Z   8
loop_
 _symmetry_equiv_pos_site_id
 _symmetry_equiv_pos_as_xyz
  1  'x, y, z'
loop_
 _atom_site_type_symbol
 _atom_site_label
 _atom_site_symmetry_multiplicity
 _atom_site_fract_x
 _atom_site_fract_y
 _atom_site_fract_z
 _atom_site_occupancy
  Gd  Gd0  1  0.37500000  0.37500000  0.37500000  1.0
  Gd  Gd1  1  0.87500000  0.87500000  0.37500000  1.0
  Gd  Gd2  1  0.87500000  0.37500000  0.87500000  1.0
  Gd  Gd3  1  0.62500000  0.62500000  0.62500000  1.0
  Gd  Gd4  1  0.62500000  0.12500000  0.12500000  1.0
  Gd  Gd5  1  0.37500000  0.87500000  0.87500000  1.0
  Gd  Gd6  1  0.12500000  0.62500000  0.12500000  1.0
  Gd  Gd7  1  0.12500000  0.12500000  0.62500000  1.0
  Pt  Pt8  1  0.00000000  0.00000000  0.00000000  1.0
  Pt  Pt9  1  0.25000000  0.25000000  0.00000000  1.0
  Pt  Pt10  1  0.25000000  0.00000000  0.25000000  1.0
  Pt  Pt11  1  0.00000000  0.75000000  0.75000000  1.0
  Pt  Pt12  1  0.00000000  0.25000000  0.25000000  1.0
  Pt  Pt13  1  0.75000000  0.75000000  0.00000000  1.0
  Pt  Pt14  1  0.75000000  0.00000000  0.75000000  1.0
  Pt  Pt15  1  0.00000000  0.50000000  0.50000000  1.0
  Pt  Pt16  1  0.25000000  0.75000000  0.50000000  1.0
  Pt  Pt17  1  0.25000000  0.50000000  0.75000000  1.0
  Pt  Pt18  1  0.75000000  0.25000000  0.50000000  1.0
  Pt  Pt19  1  0.75000000  0.50000000  0.25000000  1.0
  Pt  Pt20  1  0.50000000  0.00000000  0.50000000  1.0
  Pt  Pt21  1  0.50000000  0.75000000  0.25000000  1.0
  Pt  Pt22  1  0.50000000  0.25000000  0.75000000  1.0
  Pt  Pt23  1  0.50000000  0.50000000  0.00000000  1.0
