# generated using pymatgen
data_GdSb
_symmetry_space_group_name_H-M   'P 1'
_cell_length_a   6.21700000
_cell_length_b   6.21700000
_cell_length_c   6.21700000
_cell_angle_alpha   90.00000000
_cell_angle_beta   90.00000000
_cell_angle_gamma   90.00000000
_symmetry_Int_Tables_number   1
_chemical_formula_structural   GdSb
_chemical_formula_sum   'Gd4 Sb4'
_cell_volume   240.29382031
_cell_formula_units_Z   4
loop_
 _symmetry_equiv_pos_site_id
 _symmetry_equiv_pos_as_xyz
  1  'x, y, z'
loop_
 _atom_site_type_symbol
 _atom_site_label
 _atom_site_symmetry_multiplicity
 _atom_site_fract_x
 _atom_site_fract_y
 _atom_site_fract_z
 _atom_site_occupancy
  Gd  Gd0  1  0.00000000  0.00000000  0.00000000  1.0
  Gd  Gd1  1  0.00000000  0.50000000  0.50000000  1.0
  Gd  Gd2  1  0.50000000  0.00000000  0.50000000  1.0
  Gd  Gd3  1  0.50000000  0.50000000  0.00000000  1.0
  Sb  Sb4  1  0.50000000  0.50000000  0.50000000  1.0
  Sb  Sb5  1  0.50000000  0.00000000  0.00000000  1.0
  Sb  Sb6  1  0.00000000  0.50000000  0.00000000  1.0
  Sb  Sb7  1  0.00000000  0.00000000  0.50000000  1.0
