# generated using pymatgen
data_NiHg4
_symmetry_space_group_name_H-M   'P 1'
_cell_length_a   6.01600000
_cell_length_b   6.01600000
_cell_length_c   6.01600000
_cell_angle_alpha   90.00000000
_cell_angle_beta   90.00000000
_cell_angle_gamma   90.00000000
_symmetry_Int_Tables_number   1
_chemical_formula_structural   NiHg4
_chemical_formula_sum   'Ni2 Hg8'
_cell_volume   217.73261210
_cell_formula_units_Z   2
loop_
 _symmetry_equiv_pos_site_id
 _symmetry_equiv_pos_as_xyz
  1  'x, y, z'
loop_
 _atom_site_type_symbol
 _atom_site_label
 _atom_site_symmetry_multiplicity
 _atom_site_fract_x
 _atom_site_fract_y
 _atom_site_fract_z
 _atom_site_occupancy
  Ni  Ni0  1  0.00000000  0.00000000  0.00000000  1.0
  Ni  Ni1  1  0.50000000  0.50000000  0.50000000  1.0
  Hg  Hg2  1  0.25000000  0.25000000  0.25000000  1.0
  Hg  Hg3  1  0.75000000  0.75000000  0.75000000  1.0
  Hg  Hg4  1  0.75000000  0.75000000  0.25000000  1.0
  Hg  Hg5  1  0.75000000  0.25000000  0.75000000  1.0
  Hg  Hg6  1  0.75000000  0.25000000  0.25000000  1.0
  Hg  Hg7  1  0.25000000  0.75000000  0.75000000  1.0
  Hg  Hg8  1  0.25000000  0.75000000  0.25000000  1.0
  Hg  Hg9  1  0.25000000  0.25000000  0.75000000  1.0
