# generated using pymatgen
data_HgPo
_symmetry_space_group_name_H-M   'P 1'
_cell_length_a   6.25000000
_cell_length_b   6.25000000
_cell_length_c   6.25000000
_cell_angle_alpha   90.00000000
_cell_angle_beta   90.00000000
_cell_angle_gamma   90.00000000
_symmetry_Int_Tables_number   1
_chemical_formula_structural   HgPo
_chemical_formula_sum   'Hg4 Po4'
_cell_volume   244.14062500
_cell_formula_units_Z   4
loop_
 _symmetry_equiv_pos_site_id
 _symmetry_equiv_pos_as_xyz
  1  'x, y, z'
loop_
 _atom_site_type_symbol
 _atom_site_label
 _atom_site_symmetry_multiplicity
 _atom_site_fract_x
 _atom_site_fract_y
 _atom_site_fract_z
 _atom_site_occupancy
  Hg  Hg0  1  0.00000000  0.00000000  0.00000000  1.0
  Hg  Hg1  1  0.00000000  0.50000000  0.50000000  1.0
  Hg  Hg2  1  0.50000000  0.00000000  0.50000000  1.0
  Hg  Hg3  1  0.50000000  0.50000000  0.00000000  1.0
  Po  Po4  1  0.50000000  0.50000000  0.50000000  1.0
  Po  Po5  1  0.50000000  0.00000000  0.00000000  1.0
  Po  Po6  1  0.00000000  0.50000000  0.00000000  1.0
  Po  Po7  1  0.00000000  0.00000000  0.50000000  1.0
