# generated using pymatgen
data_Ho2C3
_symmetry_space_group_name_H-M   'P 1'
_cell_length_a   8.16300000
_cell_length_b   8.16300000
_cell_length_c   8.16300000
_cell_angle_alpha   90.00000000
_cell_angle_beta   90.00000000
_cell_angle_gamma   90.00000000
_symmetry_Int_Tables_number   1
_chemical_formula_structural   Ho2C3
_chemical_formula_sum   'Ho16 C24'
_cell_volume   543.93798675
_cell_formula_units_Z   8
loop_
 _symmetry_equiv_pos_site_id
 _symmetry_equiv_pos_as_xyz
  1  'x, y, z'
loop_
 _atom_site_type_symbol
 _atom_site_label
 _atom_site_symmetry_multiplicity
 _atom_site_fract_x
 _atom_site_fract_y
 _atom_site_fract_z
 _atom_site_occupancy
  Ho  Ho0  1  0.05120000  0.05120000  0.05120000  1.0
  Ho  Ho1  1  0.44880000  0.05120000  0.94880000  1.0
  Ho  Ho2  1  0.19880000  0.30120000  0.69880000  1.0
  Ho  Ho3  1  0.94880000  0.44880000  0.05120000  1.0
  Ho  Ho4  1  0.69880000  0.19880000  0.30120000  1.0
  Ho  Ho5  1  0.30120000  0.69880000  0.19880000  1.0
  Ho  Ho6  1  0.30120000  0.30120000  0.30120000  1.0
  Ho  Ho7  1  0.05120000  0.94880000  0.44880000  1.0
  Ho  Ho8  1  0.55120000  0.55120000  0.55120000  1.0
  Ho  Ho9  1  0.94880000  0.55120000  0.44880000  1.0
  Ho  Ho10  1  0.69880000  0.80120000  0.19880000  1.0
  Ho  Ho11  1  0.44880000  0.94880000  0.55120000  1.0
  Ho  Ho12  1  0.19880000  0.69880000  0.80120000  1.0
  Ho  Ho13  1  0.80120000  0.19880000  0.69880000  1.0
  Ho  Ho14  1  0.80120000  0.80120000  0.80120000  1.0
  Ho  Ho15  1  0.55120000  0.44880000  0.94880000  1.0
  C  C16  1  0.29890000  0.00000000  0.25000000  1.0
  C  C17  1  0.20110000  0.00000000  0.75000000  1.0
  C  C18  1  0.95110000  0.50000000  0.75000000  1.0
  C  C19  1  0.70110000  0.50000000  0.25000000  1.0
  C  C20  1  0.45110000  0.00000000  0.25000000  1.0
  C  C21  1  0.50000000  0.25000000  0.70110000  1.0
  C  C22  1  0.25000000  0.54890000  0.50000000  1.0
  C  C23  1  0.00000000  0.25000000  0.29890000  1.0
  C  C24  1  0.75000000  0.95110000  0.50000000  1.0
  C  C25  1  0.25000000  0.29890000  0.00000000  1.0
  C  C26  1  0.00000000  0.25000000  0.45110000  1.0
  C  C27  1  0.75000000  0.20110000  0.00000000  1.0
  C  C28  1  0.50000000  0.25000000  0.54890000  1.0
  C  C29  1  0.54890000  0.50000000  0.25000000  1.0
  C  C30  1  0.25000000  0.45110000  0.00000000  1.0
  C  C31  1  0.00000000  0.75000000  0.20110000  1.0
  C  C32  1  0.50000000  0.75000000  0.95110000  1.0
  C  C33  1  0.25000000  0.70110000  0.50000000  1.0
  C  C34  1  0.79890000  0.50000000  0.75000000  1.0
  C  C35  1  0.75000000  0.04890000  0.00000000  1.0
  C  C36  1  0.50000000  0.75000000  0.79890000  1.0
  C  C37  1  0.75000000  0.79890000  0.50000000  1.0
  C  C38  1  0.00000000  0.75000000  0.04890000  1.0
  C  C39  1  0.04890000  0.00000000  0.75000000  1.0
