# generated using pymatgen
data_HoMn2
_symmetry_space_group_name_H-M   'P 1'
_cell_length_a   7.51800000
_cell_length_b   7.51800000
_cell_length_c   7.51800000
_cell_angle_alpha   90.00000000
_cell_angle_beta   90.00000000
_cell_angle_gamma   90.00000000
_symmetry_Int_Tables_number   1
_chemical_formula_structural   HoMn2
_chemical_formula_sum   'Ho8 Mn16'
_cell_volume   424.91979583
_cell_formula_units_Z   8
loop_
 _symmetry_equiv_pos_site_id
 _symmetry_equiv_pos_as_xyz
  1  'x, y, z'
loop_
 _atom_site_type_symbol
 _atom_site_label
 _atom_site_symmetry_multiplicity
 _atom_site_fract_x
 _atom_site_fract_y
 _atom_site_fract_z
 _atom_site_occupancy
  Ho  Ho0  1  0.37500000  0.37500000  0.37500000  1.0
  Ho  Ho1  1  0.87500000  0.87500000  0.37500000  1.0
  Ho  Ho2  1  0.87500000  0.37500000  0.87500000  1.0
  Ho  Ho3  1  0.62500000  0.62500000  0.62500000  1.0
  Ho  Ho4  1  0.62500000  0.12500000  0.12500000  1.0
  Ho  Ho5  1  0.37500000  0.87500000  0.87500000  1.0
  Ho  Ho6  1  0.12500000  0.62500000  0.12500000  1.0
  Ho  Ho7  1  0.12500000  0.12500000  0.62500000  1.0
  Mn  Mn8  1  0.00000000  0.00000000  0.00000000  1.0
  Mn  Mn9  1  0.25000000  0.25000000  0.00000000  1.0
  Mn  Mn10  1  0.25000000  0.00000000  0.25000000  1.0
  Mn  Mn11  1  0.00000000  0.75000000  0.75000000  1.0
  Mn  Mn12  1  0.00000000  0.25000000  0.25000000  1.0
  Mn  Mn13  1  0.75000000  0.75000000  0.00000000  1.0
  Mn  Mn14  1  0.75000000  0.00000000  0.75000000  1.0
  Mn  Mn15  1  0.00000000  0.50000000  0.50000000  1.0
  Mn  Mn16  1  0.25000000  0.75000000  0.50000000  1.0
  Mn  Mn17  1  0.25000000  0.50000000  0.75000000  1.0
  Mn  Mn18  1  0.75000000  0.25000000  0.50000000  1.0
  Mn  Mn19  1  0.75000000  0.50000000  0.25000000  1.0
  Mn  Mn20  1  0.50000000  0.00000000  0.50000000  1.0
  Mn  Mn21  1  0.50000000  0.75000000  0.25000000  1.0
  Mn  Mn22  1  0.50000000  0.25000000  0.75000000  1.0
  Mn  Mn23  1  0.50000000  0.50000000  0.00000000  1.0
