# generated using pymatgen
data_InAs
_symmetry_space_group_name_H-M   'P 1'
_cell_length_a   6.05840000
_cell_length_b   6.05840000
_cell_length_c   6.05840000
_cell_angle_alpha   90.00000000
_cell_angle_beta   90.00000000
_cell_angle_gamma   90.00000000
_symmetry_Int_Tables_number   1
_chemical_formula_structural   InAs
_chemical_formula_sum   'In4 As4'
_cell_volume   222.36878926
_cell_formula_units_Z   4
loop_
 _symmetry_equiv_pos_site_id
 _symmetry_equiv_pos_as_xyz
  1  'x, y, z'
loop_
 _atom_site_type_symbol
 _atom_site_label
 _atom_site_symmetry_multiplicity
 _atom_site_fract_x
 _atom_site_fract_y
 _atom_site_fract_z
 _atom_site_occupancy
  In  In0  1  0.25000000  0.25000000  0.25000000  1.0
  In  In1  1  0.75000000  0.75000000  0.25000000  1.0
  In  In2  1  0.75000000  0.25000000  0.75000000  1.0
  In  In3  1  0.25000000  0.75000000  0.75000000  1.0
  As  As4  1  0.00000000  0.00000000  0.00000000  1.0
  As  As5  1  0.00000000  0.50000000  0.50000000  1.0
  As  As6  1  0.50000000  0.00000000  0.50000000  1.0
  As  As7  1  0.50000000  0.50000000  0.00000000  1.0
