# generated using pymatgen
data_P3Ir
_symmetry_space_group_name_H-M   'P 1'
_cell_length_a   8.01510000
_cell_length_b   8.01510000
_cell_length_c   8.01510000
_cell_angle_alpha   90.00000000
_cell_angle_beta   90.00000000
_cell_angle_gamma   90.00000000
_symmetry_Int_Tables_number   1
_chemical_formula_structural   P3Ir
_chemical_formula_sum   'P24 Ir8'
_cell_volume   514.90467568
_cell_formula_units_Z   8
loop_
 _symmetry_equiv_pos_site_id
 _symmetry_equiv_pos_as_xyz
  1  'x, y, z'
loop_
 _atom_site_type_symbol
 _atom_site_label
 _atom_site_symmetry_multiplicity
 _atom_site_fract_x
 _atom_site_fract_y
 _atom_site_fract_z
 _atom_site_occupancy
  P  P0  1  0.00000000  0.13930000  0.35400000  1.0
  P  P1  1  0.00000000  0.86070000  0.64600000  1.0
  P  P2  1  0.00000000  0.86070000  0.35400000  1.0
  P  P3  1  0.00000000  0.13930000  0.64600000  1.0
  P  P4  1  0.86070000  0.64600000  0.00000000  1.0
  P  P5  1  0.86070000  0.35400000  0.00000000  1.0
  P  P6  1  0.64600000  0.00000000  0.86070000  1.0
  P  P7  1  0.64600000  0.00000000  0.13930000  1.0
  P  P8  1  0.13930000  0.64600000  0.00000000  1.0
  P  P9  1  0.13930000  0.35400000  0.00000000  1.0
  P  P10  1  0.35400000  0.00000000  0.86070000  1.0
  P  P11  1  0.35400000  0.00000000  0.13930000  1.0
  P  P12  1  0.50000000  0.63930000  0.85400000  1.0
  P  P13  1  0.50000000  0.36070000  0.14600000  1.0
  P  P14  1  0.50000000  0.36070000  0.85400000  1.0
  P  P15  1  0.50000000  0.63930000  0.14600000  1.0
  P  P16  1  0.36070000  0.14600000  0.50000000  1.0
  P  P17  1  0.36070000  0.85400000  0.50000000  1.0
  P  P18  1  0.14600000  0.50000000  0.36070000  1.0
  P  P19  1  0.14600000  0.50000000  0.63930000  1.0
  P  P20  1  0.63930000  0.14600000  0.50000000  1.0
  P  P21  1  0.63930000  0.85400000  0.50000000  1.0
  P  P22  1  0.85400000  0.50000000  0.36070000  1.0
  P  P23  1  0.85400000  0.50000000  0.63930000  1.0
  Ir  Ir24  1  0.25000000  0.25000000  0.25000000  1.0
  Ir  Ir25  1  0.75000000  0.75000000  0.75000000  1.0
  Ir  Ir26  1  0.75000000  0.75000000  0.25000000  1.0
  Ir  Ir27  1  0.75000000  0.25000000  0.75000000  1.0
  Ir  Ir28  1  0.75000000  0.25000000  0.25000000  1.0
  Ir  Ir29  1  0.25000000  0.75000000  0.75000000  1.0
  Ir  Ir30  1  0.25000000  0.75000000  0.25000000  1.0
  Ir  Ir31  1  0.25000000  0.25000000  0.75000000  1.0
