# generated using pymatgen
data_KFeO2
_symmetry_space_group_name_H-M   'P 1'
_cell_length_a   7.95400000
_cell_length_b   7.95400000
_cell_length_c   7.95400000
_cell_angle_alpha   90.00000000
_cell_angle_beta   90.00000000
_cell_angle_gamma   90.00000000
_symmetry_Int_Tables_number   1
_chemical_formula_structural   KFeO2
_chemical_formula_sum   'K8 Fe8 O16'
_cell_volume   503.21868666
_cell_formula_units_Z   8
loop_
 _symmetry_equiv_pos_site_id
 _symmetry_equiv_pos_as_xyz
  1  'x, y, z'
loop_
 _atom_site_type_symbol
 _atom_site_label
 _atom_site_symmetry_multiplicity
 _atom_site_fract_x
 _atom_site_fract_y
 _atom_site_fract_z
 _atom_site_occupancy
  K  K0  1  0.37500000  0.37500000  0.37500000  1.0
  K  K1  1  0.87500000  0.87500000  0.37500000  1.0
  K  K2  1  0.87500000  0.37500000  0.87500000  1.0
  K  K3  1  0.62500000  0.62500000  0.62500000  1.0
  K  K4  1  0.62500000  0.12500000  0.12500000  1.0
  K  K5  1  0.37500000  0.87500000  0.87500000  1.0
  K  K6  1  0.12500000  0.62500000  0.12500000  1.0
  K  K7  1  0.12500000  0.12500000  0.62500000  1.0
  Fe  Fe8  1  0.12500000  0.12500000  0.12500000  1.0
  Fe  Fe9  1  0.87500000  0.87500000  0.87500000  1.0
  Fe  Fe10  1  0.87500000  0.37500000  0.37500000  1.0
  Fe  Fe11  1  0.62500000  0.62500000  0.12500000  1.0
  Fe  Fe12  1  0.62500000  0.12500000  0.62500000  1.0
  Fe  Fe13  1  0.37500000  0.87500000  0.37500000  1.0
  Fe  Fe14  1  0.37500000  0.37500000  0.87500000  1.0
  Fe  Fe15  1  0.12500000  0.62500000  0.62500000  1.0
  O  O16  1  0.00000000  0.00000000  0.00000000  1.0
  O  O17  1  0.25000000  0.25000000  0.00000000  1.0
  O  O18  1  0.25000000  0.00000000  0.25000000  1.0
  O  O19  1  0.00000000  0.75000000  0.75000000  1.0
  O  O20  1  0.00000000  0.25000000  0.25000000  1.0
  O  O21  1  0.75000000  0.75000000  0.00000000  1.0
  O  O22  1  0.75000000  0.00000000  0.75000000  1.0
  O  O23  1  0.00000000  0.50000000  0.50000000  1.0
  O  O24  1  0.25000000  0.75000000  0.50000000  1.0
  O  O25  1  0.25000000  0.50000000  0.75000000  1.0
  O  O26  1  0.75000000  0.25000000  0.50000000  1.0
  O  O27  1  0.75000000  0.50000000  0.25000000  1.0
  O  O28  1  0.50000000  0.00000000  0.50000000  1.0
  O  O29  1  0.50000000  0.75000000  0.25000000  1.0
  O  O30  1  0.50000000  0.25000000  0.75000000  1.0
  O  O31  1  0.50000000  0.50000000  0.00000000  1.0
